*Heading
** Job name: abaqusModel3 Model name: abaqusModel8
** Generated by: Abaqus/CAE 2018
*Preprint, echo=NO, model=NO, history=NO, contact=NO
**
** PARTS
**
*Part, name=PART-1
*Node
  55873,  0.932596266,  0.137140319,  0.108453549
  55874,  0.959725499,  0.176935971,  0.157546014
  55875,   1.09314227,  0.132070035, 0.0916222036
  55876,    1.0848856,  0.158897862,  0.131996691
  55877,   1.25174868,  0.142789081, 0.0911234245
  55878,   1.24867666,  0.165373743,  0.136000603
  55879,   1.42358673,  0.142636612, 0.0900538713
  55880,    1.4185077,  0.171594843,  0.152597293
  55881,   1.61191082,  0.138274461,  0.108245984
  55882,   1.59846437,  0.168725863,  0.159572542
  55883,   1.80444682,   0.14022325,  0.134311587
  55884,   1.76704359,  0.160755143,  0.156853497
  55885,   3.09528732,  0.112127855,  0.106104791
  55886,   3.13529539,  0.131130576,   0.12823838
  55887,   3.25415325,  0.130240649,  0.111147702
  55888,   3.25003433,  0.143006966,  0.146241829
  55889,   3.35599494,   0.13057135,  0.176323846
  55890,   3.33599496,  0.150571346,  0.196323842
  55891,  0.919454336,  0.159929395, 0.0969870463
  55892,  0.945182085,     0.256127,  0.142317936
** ... 36690 like lines cut
*Element, type=C3D8R
112053, 60467, 60469, 60523, 60521, 61665, 61667, 61724, 61723
112054, 60467, 61665, 61723, 60521, 60466, 61664, 61722, 60520
112055, 60469, 61667, 61665, 60467, 60468, 61666, 61664, 60466
112056, 60467, 60521, 60523, 60469, 60466, 60520, 60522, 60468
112057, 61665, 61667, 61724, 61723, 62799, 62801, 62854, 62853
112058, 61665, 62799, 62853, 61723, 61664, 62798, 62852, 61722
112059, 61667, 62801, 62799, 61665, 61666, 62800, 62798, 61664
112060, 62799, 62801, 62854, 62853, 64024, 64026, 64075, 64074
112061, 62799, 64024, 64074, 62853, 62798, 64023, 64073, 62852
112062, 62801, 64026, 64024, 62799, 62800, 64025, 64023, 62798
112063, 64024, 64026, 64075, 64074, 65250, 65252, 65293, 65292
112064, 64024, 65250, 65292, 64074, 64023, 65249, 65291, 64073
112065, 64026, 65252, 65250, 64024, 64025, 65251, 65249, 64023
112066, 65250, 65252, 65293, 65292, 66486, 66488, 66522, 66520
112067, 65250, 66486, 66520, 65292, 65249, 66485, 66519, 65291
112068, 65252, 66488, 66486, 65250, 65251, 66487, 66485, 65249
112069, 66486, 66488, 66522, 66520, 66485, 66487, 66521, 66519
112070, 73742, 73744, 73804, 73802, 74959, 74961, 75016, 75015
112071, 73742, 74959, 75015, 73802, 73741, 74958, 75014, 73801
112072, 73744, 74961, 74959, 73742, 73743, 74960, 74958, 73741
** ... 28956 like lines cut
*Elset, elset=Gyroid, generate
 112053,  141028,       1
** Section: Gyroid
*Solid Section, elset=Gyroid, material=Material-1
,
*End Part
**  
*Part, name=Round
*Node
      1,           5.,           0.,           2.
      2,           5.,           0.,           0.
      3,   4.79746485,   -1.4086628,           2.
      4,   4.20626783,  -2.70320415,           2.
      5,   3.27430367,   -3.7787478,           2.
      6,     2.077075,  -4.54816008,           2.
      7,  0.711574197,  -4.94910717,           2.
      8, -0.711574197,  -4.94910717,           2.
      9,    -2.077075,  -4.54816008,           2.
     10,  -3.27430367,   -3.7787478,           2.
     11,  -4.20626783,  -2.70320415,           2.
     12,  -4.79746485,   -1.4086628,           2.
     13,          -5.,           0.,           2.
     14,  -4.79746485,    1.4086628,           2.
     15,  -4.20626783,   2.70320415,           2.
     16,  -3.27430367,    3.7787478,           2.
     17,    -2.077075,   4.54816008,           2.
     18, -0.711574197,   4.94910717,           2.
     19,  0.711574197,   4.94910717,           2.
     20,     2.077075,   4.54816008,           2.
** ... 112 like lines cut
*Element, type=R3D4
 1,  1,  3, 44,  2
 2,  3,  4, 43, 44
 3,  4,  5, 42, 43
 4,  5,  6, 41, 42
 5,  6,  7, 40, 41
 6,  7,  8, 39, 40
 7,  8,  9, 38, 39
 8,  9, 10, 37, 38
 9, 10, 11, 36, 37
10, 11, 12, 35, 36
11, 12, 13, 34, 35
12, 13, 14, 33, 34
13, 14, 15, 32, 33
14, 15, 16, 31, 32
15, 16, 17, 30, 31
16, 17, 18, 29, 30
17, 18, 19, 28, 29
18, 19, 20, 27, 28
19, 20, 21, 26, 27
20, 21, 22, 25, 26
** ... 106 like lines cut
*Element, type=R3D3
23, 63,  4,  3
24, 79, 78, 76
25, 76, 67, 70
26, 84, 58, 45
79, 107,  25,  24
80, 123, 122, 120
81, 120, 111, 114
82, 128, 102,  89
*Node
    133,           0.,           0.,           0.
*Nset, nset=Round-RefPt_, internal
133, 
*Elset, elset=Round, generate
   1,  134,    1
*End Part
**  
**
** ASSEMBLY
**
*Assembly, name=Assembly
**  
*Instance, name=PART-1-1, part=PART-1
         -3.,          -3.,           0.
*End Instance
**  
*Instance, name=Round-1, part=Round
          0.,           0.,           6.
*End Instance
**  
*Instance, name=Round-2, part=Round
          0.,           0.,          -2.
*End Instance
**  
*Elset, elset=AUTO, instance=PART-1-1, generate
 112053,  141028,       1
*Nset, nset=Set-2, instance=Round-2
 133,
*Nset, nset=Set-3, instance=Round-1
 133,
*Rigid Body, ref node=Round-1.Round-RefPt_, elset=Round-1.Round
*Rigid Body, ref node=Round-2.Round-RefPt_, elset=Round-2.Round
*End Assembly
*Amplitude, name=Amp-1
             0.,              0.,              3.,              1.
** 
** MATERIALS
** 
*Material, name=Material-1
*Damage Initiation, criterion=DUCTILE
 0.12, 0.33,   0.
*Damage Evolution, type=DISPLACEMENT
 0.12,
*Density
7140.,
*Elastic
 3e+10, 0.25
*Plastic
 1.18e+08,    0.
 1.25e+08, 0.003
  1.3e+08, 0.006
 1.34e+08, 0.009
 1.37e+08, 0.012
 1.39e+08, 0.015
 1.41e+08, 0.018
 1.43e+08, 0.024
 1.45e+08, 0.036
 1.46e+08, 0.042
 1.48e+08, 0.048
 1.49e+08, 0.054
  1.5e+08, 0.084
     151., 0.118
** 
** INTERACTION PROPERTIES
** 
*Surface Interaction, name=IntProp-1
*Friction
 0.125,
** ----------------------------------------------------------------
** 
** STEP: Step-1
** 
*Step, name=Step-1, nlgeom=YES
*Dynamic, Explicit
, 3.
*Bulk Viscosity
0.06, 1.2
** 
** BOUNDARY CONDITIONS
** 
** Name: BC-1 Type: Displacement/Rotation
*Boundary
Set-2, 1, 1
Set-2, 2, 2
Set-2, 3, 3
Set-2, 4, 4
Set-2, 5, 5
Set-2, 6, 6
** Name: BC-2 Type: Displacement/Rotation
*Boundary, amplitude=Amp-1
Set-3, 1, 1
Set-3, 2, 2
Set-3, 3, 3, -2.
Set-3, 4, 4
Set-3, 5, 5
Set-3, 6, 6
** 
** INTERACTIONS
** 
** Interaction: Int-1
*Contact, op=NEW
*Contact Inclusions, ALL EXTERIOR
*Contact Property Assignment
 ,  , IntProp-1
** 
** OUTPUT REQUESTS
** 
*Restart, write, number interval=1, time marks=NO
** 
** FIELD OUTPUT: F-Output-2
** 
*Output, field
*Node Output
A, RF, RT, U, V
** 
** FIELD OUTPUT: F-Output-1
** 
*Output, field, variable=PRESELECT, number interval=40
** 
** HISTORY OUTPUT: H-Output-1
** 
*Output, history, variable=PRESELECT
*End Step
